10
Si 2.1
Si 34.34561 -12.69468 16.60059
Si 35.73950 -14.44362 15.85016
Si 32.40875 -13.97222 17.47963
Si 34.67225 -16.48943 15.99124
Si 32.47808 -16.07973 16.66804
Si 35.25141 -13.25950 18.86566
Si 36.65130 -14.89519 17.95274
Si 33.39614 -14.38483 19.49150
Si 35.60992 -17.03352 18.12474
Si 33.56399 -16.55834 18.84251

10
Si 2.1
Si -29.09486 3.96709 0.15486
Si -27.64247 2.52799 1.41370
Si -28.20328 4.79929 -1.86405
Si -25.68074 2.60027 0.14729
Si -25.98020 4.05192 -1.66419
Si -29.60541 1.96962 -0.95777
Si -28.12887 0.52505 0.15603
Si -28.60270 2.75665 -2.93828
Si -26.19694 0.58705 -1.05774
Si -26.23929 2.09359 -2.99429


10
Si 2.1
Si 23.48975 -16.78242 -42.44227
Si 25.46132 -17.70395 -41.22096
Si 22.20865 -18.76152 -43.28167
Si 24.71103 -18.81652 -43.24067
Si 23.47363 -20.77466 -42.52345
Si 23.44973 -16.93999 -39.95201
Si 24.62415 -18.94899 -39.33965
Si 21.47222 -17.58660 -41.19750
Si 23.43741 -20.78262 -40.11743
Si 21.46209 -20.01078 -41.25438