10
Si 2.1
Si 0.00000 1.99048 -0.03308
Si 1.89284 0.61520 -0.03308
Si -1.89284 0.61520 -0.03308
Si 1.16985 -1.61000 -0.03308
Si -1.16985 -1.61000 -0.03308
Si 0.00000 1.99048 2.33308
Si 1.89284 0.61520 2.33308
Si -1.89284 0.61520 2.33308
Si 1.16985 -1.61000 2.33308
Si -1.16985 -1.61000 2.33308